<?xml version="1.0" encoding="UTF-8"?>
<!-- 比赛场景节点定义 -->
<nodes xmlns:xsi="http://www.w3.org/2001/XMLSchema-instance" xsi:noNamespaceSchemaLocation="http://sumo.dlr.de/xsd/nodes_file.xsd">
    <!-- 十字路口 -->
    <node id="J_cross" x="200.00" y="200.00" type="traffic_light"/>
    
    <!-- T型路口 -->
    <node id="J_t" x="200.00" y="400.00" type="traffic_light"/>
    
    <!-- 边界节点 -->
    <node id="J1" x="0.00" y="200.00" type="priority"/>
    <node id="J2" x="400.00" y="200.00" type="priority"/>
    <node id="J3" x="200.00" y="0.00" type="priority"/>
    <node id="J4" x="0.00" y="400.00" type="priority"/>
    <node id="J5" x="400.00" y="400.00" type="priority"/>
</nodes>
