<?xml version="1.0" encoding="UTF-8"?>
<!-- 修复后的比赛场景路由：解决T字路口问题 -->
<routes xmlns:xsi="http://www.w3.org/2001/XMLSchema-instance" xsi:noNamespaceSchemaLocation="http://sumo.dlr.de/xsd/routes_file.xsd">

    <!-- 车辆类型定义 -->
    <vType id="car" accel="2.0" decel="3.5" sigma="0.3" length="5.0" minGap="3.0" maxSpeed="12.0" guiShape="passenger" laneChangeModel="LC2013"/>
    <vType id="car_right" accel="1.8" decel="3.0" sigma="0.2" length="5.0" minGap="3.5" maxSpeed="10.0" guiShape="passenger" laneChangeModel="LC2013"/>
    <vType id="truck" accel="1.8" decel="4.0" sigma="0.3" length="12.0" minGap="3.0" maxSpeed="11.11" guiShape="truck"/>

    <!-- 十字路口路由 -->
    <route id="west_to_east" edges="E1 E2"/>
    <route id="east_to_west" edges="-E2 -E1"/>
    <route id="south_to_north" edges="E3 E4"/>
    <route id="north_to_south" edges="-E4 -E3"/>
    
    <!-- 十字路口左转 -->
    <route id="west_to_north" edges="E1 E4"/>
    <route id="south_to_east" edges="E3 E2"/>
    <route id="east_to_south" edges="-E2 -E3"/>
    <route id="north_to_west" edges="-E4 -E1"/>
    
    <!-- 十字路口右转 -->
    <route id="west_to_south" edges="E1 -E3"/>
    <route id="south_to_west" edges="E3 -E1"/>
    <route id="east_to_north" edges="-E2 E4"/>
    <route id="north_to_east" edges="-E4 E2"/>
    
    <!-- T字路口基本路由 -->
    <route id="northwest_to_northeast" edges="E5 E6"/>
    <route id="northeast_to_northwest" edges="-E6 -E5"/>
    
    <!-- T字路口右转路由（专用，避免冲突） -->
    <route id="south_to_northeast_right" edges="E4 E6"/>
    <route id="northwest_to_south_right" edges="E5 -E4"/>
    
    <!-- 简化的跨路口路由（减少冲突） -->
    <route id="south_to_northwest" edges="E3 E4 -E5"/>
    <route id="northeast_to_south" edges="-E6 E4 -E3"/>
    <route id="northwest_to_east" edges="E5 E4 E2"/>
    <route id="northeast_to_west" edges="-E6 E4 -E1"/>

    <!-- 车流定义 -->
    <!-- 十字路口主要车流 -->
    <flow id="flow_west_east" route="west_to_east" begin="0" end="3600" vehsPerHour="350" type="car"/>
    <flow id="flow_east_west" route="east_to_west" begin="0" end="3600" vehsPerHour="330" type="car"/>
    <flow id="flow_south_north" route="south_to_north" begin="0" end="3600" vehsPerHour="150" type="car"/>
    <flow id="flow_north_south" route="north_to_south" begin="0" end="3600" vehsPerHour="220" type="car"/>

    <!-- 十字路口左转 -->
    <flow id="flow_west_north" route="west_to_north" begin="0" end="3600" vehsPerHour="80" type="car"/>
    <flow id="flow_south_east" route="south_to_east" begin="0" end="3600" vehsPerHour="70" type="car"/>
    <flow id="flow_east_south" route="east_to_south" begin="0" end="3600" vehsPerHour="60" type="car"/>
    <flow id="flow_north_west" route="north_to_west" begin="0" end="3600" vehsPerHour="75" type="car"/>

    <!-- 十字路口右转 -->
    <flow id="flow_west_south" route="west_to_south" begin="0" end="3600" vehsPerHour="120" type="car_right"/>
    <flow id="flow_south_west" route="south_to_west" begin="0" end="3600" vehsPerHour="110" type="car_right"/>
    <flow id="flow_east_north" route="east_to_north" begin="0" end="3600" vehsPerHour="100" type="car_right"/>
    <flow id="flow_north_east" route="north_to_east" begin="0" end="3600" vehsPerHour="115" type="car_right"/>

    <!-- T字路口车流 -->
    <flow id="flow_nw_ne" route="northwest_to_northeast" begin="0" end="3600" vehsPerHour="120" type="car"/>
    <flow id="flow_ne_nw" route="northeast_to_northwest" begin="0" end="3600" vehsPerHour="100" type="car"/>
    
    <!-- T字路口右转（增加车流，使用专用车型） -->
    <flow id="flow_south_ne_right" route="south_to_northeast_right" begin="0" end="3600" vehsPerHour="150" type="car_right"/>
    <flow id="flow_nw_south_right" route="northwest_to_south_right" begin="0" end="3600" vehsPerHour="120" type="car_right"/>

    <!-- 跨路口车流（减少，避免拥堵） -->
    <flow id="flow_south_nw" route="south_to_northwest" begin="0" end="3600" vehsPerHour="8" type="car"/>
    <flow id="flow_ne_south" route="northeast_to_south" begin="0" end="3600" vehsPerHour="5" type="car"/>
    <flow id="flow_nw_east" route="northwest_to_east" begin="0" end="3600" vehsPerHour="6" type="car"/>
    <flow id="flow_ne_west" route="northeast_to_west" begin="0" end="3600" vehsPerHour="5" type="car"/>

</routes>